data/LV20_26bus_tsori/Master.dss
Clear

new circuit.lv20_26bus angle=-30.0000000000 basekv=11.0000000000 pu=1 phases=3 bus1=B2157 model=ideal

set defaultbasefrequency=50.0000000000
set basefrequency=50.0000000000

redirect Linecodes.dss
redirect lines.dss
redirect Loadshapes.dss
redirect Loads.dss
redirect Transformers.dss
redirect Switches.dss
redirect Groundings.dss


new Energymeter.substation Element=Transformer.Tx1840 1

Set Voltagebases=[0.433, 11.0]
Calcvoltagebases
